<?xml version="1.0" encoding="UTF-8"?>
<routes>
    <route-group controller="App\Components\Widget\AdminWidgetController" prefix="admin" as="admin" middleware="App\Middleware\AdminMiddleware">
        <route method="get" uri="widgets" as="widget.list" use="list"/>
    </route-group>
</routes>
